Version 4
SHEET 1 904 680
WIRE 96 144 96 80
WIRE 144 144 96 144
WIRE 320 144 320 112
WIRE 320 144 256 144
WIRE 144 176 -16 176
WIRE 304 176 256 176
WIRE -16 192 -16 176
WIRE -16 224 -16 192
WIRE 304 304 304 176
WIRE -16 336 -16 304
FLAG 304 304 0
FLAG -16 336 0
FLAG 96 80 out
IOPIN 96 80 Out
FLAG 320 32 0
FLAG -16 192 in
IOPIN -16 192 In
SYMBOL voltage 320 128 R180
WINDOW 0 24 96 Left 2
WINDOW 3 -369 10 Left 2
WINDOW 123 0 0 Left 0
WINDOW 39 0 0 Left 0
SYMATTR InstName V2
SYMATTR Value PULSE(0 5 1n 1n 1n 0.5ms 1ms)
SYMBOL voltage -16 208 R0
WINDOW 123 0 0 Left 0
WINDOW 39 0 0 Left 0
SYMATTR InstName V1
SYMATTR Value 0
SYMBOL Digital\\SN74LS04 192 160 R0
SYMATTR InstName U1
TEXT -48 360 Left 2 !.tran 0 0.7ms 0.3ms
TEXT 408 208 Left 2 !.meas tran vmax max v(out)\n.meas tran t0 when v(out)=3.4\n.meas tran tf when v(out)=0.4\n.meas ts param tf-t0
