Version 4
SHEET 1 880 680
WIRE 496 80 96 80
WIRE 96 144 96 80
WIRE 144 144 96 144
WIRE 384 144 256 144
WIRE 496 160 496 80
WIRE -176 176 -256 176
WIRE 16 176 -112 176
WIRE 144 176 16 176
WIRE 304 176 256 176
WIRE 384 176 384 144
WIRE 560 192 560 160
WIRE -256 208 -256 176
WIRE 304 304 304 176
WIRE 384 304 384 256
WIRE 560 304 560 272
WIRE -256 320 -256 288
FLAG 304 304 0
FLAG -256 320 0
FLAG 384 304 0
FLAG -256 176 in
IOPIN -256 176 In
FLAG 16 256 0
FLAG 560 304 0
SYMBOL voltage -256 192 R0
WINDOW 123 0 0 Left 0
WINDOW 39 0 0 Left 0
SYMATTR InstName V1
SYMATTR Value PULSE(0 5 10u 10u 10u 0.5m 1m)
SYMBOL voltage 384 160 R0
WINDOW 0 24 96 Left 2
WINDOW 3 24 16 Left 2
WINDOW 123 0 0 Left 0
WINDOW 39 0 0 Left 0
SYMATTR InstName V2
SYMATTR Value 5
SYMBOL res 32 272 R180
WINDOW 0 36 76 Left 2
WINDOW 3 36 40 Left 2
SYMATTR InstName R1
SYMATTR Value 500
SYMBOL LED -176 192 R270
WINDOW 0 72 32 VTop 2
WINDOW 3 0 32 VBottom 2
SYMATTR InstName D2
SYMBOL LED 496 176 R270
WINDOW 0 72 32 VTop 2
WINDOW 3 0 32 VBottom 2
SYMATTR InstName D1
SYMBOL res 544 176 R0
SYMATTR InstName R2
SYMATTR Value 100k
SYMBOL Digital\\CD4069UB 192 160 R0
SYMATTR InstName U1
TEXT -224 376 Left 2 !.tran 0 44ms 40ms
