Version 4
SHEET 1 880 680
WIRE 832 -16 640 -16
WIRE -64 0 -272 0
WIRE 128 0 -48 0
WIRE 368 0 160 0
WIRE 608 0 400 0
WIRE -272 48 -272 0
WIRE -240 48 -272 48
WIRE -80 48 -128 48
WIRE -48 48 -48 0
WIRE -16 48 -48 48
WIRE 112 48 96 48
WIRE 160 48 160 0
WIRE 208 48 160 48
WIRE 352 48 320 48
WIRE 400 48 400 0
WIRE 432 48 400 48
WIRE 592 48 544 48
WIRE 640 48 640 -16
WIRE 672 48 640 48
WIRE 816 48 784 48
WIRE -240 80 -272 80
WIRE -64 80 -64 0
WIRE -16 80 -64 80
WIRE 128 80 128 0
WIRE 208 80 128 80
WIRE 368 80 368 0
WIRE 432 80 368 80
WIRE 608 80 608 0
WIRE 672 80 608 80
WIRE 592 144 592 48
WIRE 816 144 816 48
WIRE 816 144 592 144
WIRE -80 160 -80 48
WIRE 112 160 112 48
WIRE 112 160 -80 160
WIRE 352 160 352 48
WIRE 352 160 112 160
WIRE 480 160 352 160
WIRE 592 160 592 144
WIRE 592 160 480 160
WIRE -272 224 -272 80
WIRE 832 224 832 -16
WIRE 832 224 -272 224
WIRE 480 336 480 160
WIRE 480 464 480 416
FLAG 784 80 0
FLAG 544 80 0
FLAG 320 80 0
FLAG 480 464 0
FLAG 640 -16 a
FLAG 96 80 0
FLAG -128 80 0
SYMBOL Digital\\CD4069UB 256 64 R0
SYMATTR InstName U1
SYMBOL Digital\\CD4069UB 480 64 R0
SYMATTR InstName U2
SYMBOL Digital\\CD4069UB 720 64 R0
SYMATTR InstName U3
SYMBOL voltage 480 320 R0
WINDOW 123 0 0 Left 0
WINDOW 39 0 0 Left 0
SYMATTR InstName V1
SYMATTR Value 5
SYMBOL Digital\\CD4069UB 32 64 R0
SYMATTR InstName U4
SYMBOL Digital\\CD4069UB -192 64 R0
WINDOW 3 9 49 Top 2
SYMATTR InstName U5
TEXT 88 312 Left 2 !.tran 4.6u
TEXT 584 368 Left 2 !.ic v(a)=5
